%NPROCSHARED=1
%MEM=1000MB
%CHK=test.1.chk
%OLDCHK=test.chk
#P CAM-B3LYP/6-31++G** guess=read nosymm gfinput gfprint force charge guess=huckel punch=derivatives iop(3/33=1,6/7=3) prop(field,read) pop=esp

QM part of step 1

1 1
N     47.231507    85.558636    31.133574
H     47.703682    84.715558    30.317260
H     47.189234    86.469531    30.893453
H     49.433695    86.213581    31.004185
C     47.711854    85.466235    32.530323
H     48.503681    84.040776    32.797610
H     46.171569    84.674778    32.518019
H     47.705453    85.948457    33.182908

   46.946740    86.348940    34.295189    -0.286100
   48.866027    86.936463    33.288956    -0.096000
   49.531815    86.817534    32.636432     0.268100
   49.116053    88.190767    34.008456    -0.272200
   49.301562    87.736105    35.331266     0.130400
   50.213958    88.830102    33.673045     0.112300
   50.612328    89.824287    34.555177     0.081300
   51.328981    88.138740    33.744184     0.081300
   50.219417    89.367960    32.381281    -0.651400
   50.986619    89.938765    32.216215     0.447400
   48.132419    88.675153    35.175313     0.811300
   47.390706    90.093052    32.380000    -0.813200
   47.290000    89.260000    35.250000    -0.813200
   46.554118    86.392327    34.720975    -0.268690
   47.339362    86.305553    33.869402     0.268690
   49.398410    87.255470    33.219649    -0.277679
   48.333644    86.617457    33.358263     0.277679

   46.946740    86.348940    34.295189
   48.866027    86.936463    33.288956
   49.531815    86.817534    32.636432
   49.116053    88.190767    34.008456
   49.301562    87.736105    35.331266
   50.213958    88.830102    33.673045
   50.612328    89.824287    34.555177
   51.328981    88.138740    33.744184
   50.219417    89.367960    32.381281
   50.986619    89.938765    32.216215
   48.132419    88.675153    35.175313
   47.390706    90.093052    32.380000
   47.290000    89.260000    35.250000
   46.554118    86.392327    34.720975
   47.339362    86.305553    33.869402
   49.398410    87.255470    33.219649
   48.333644    86.617457    33.358263


