%NPROCSHARED=1
%MEM=1000MB
%CHK=test.chk
#P BP86/STO-3G nosymm gfinput gfprint force charge guess=huckel punch=derivatives iop(3/33=1,6/7=3) prop(field,read) pop=esp

QM part of step 0

1 1
N     47.900000    85.620000    31.120000
H     47.700000    84.870000    30.470000
H     47.200000    86.370000    30.900000
H     48.770000    85.950000    31.060000
C     47.570000    85.150000    32.470000
H     48.200000    84.400000    32.670000
H     46.630000    84.810000    32.500000
H     47.705453    85.948457    33.182908

