%NPROCSHARED=1
%MEM=1000MB
%CHK=testopt.1.chk
%OLDCHK=testopt.chk
#P BP86/STO-3G guess=read nosymm gfinput gfprint force charge guess=huckel punch=derivatives iop(3/33=1,6/7=3) prop(field,read) pop=esp

QM part of step 1

1 1
N     47.864625    85.616753    31.120718
H     47.700195    84.861827    30.461917
H     47.199430    86.375267    30.899654
H     48.805121    85.963948    31.057046
C     47.577863    85.168837    32.475069
H     48.216070    84.380991    32.676753
H     46.605741    84.802844    32.500954
H     47.706677    85.952040    33.181729

   46.949827    86.435181    34.366041    -0.286100
   48.860319    87.006109    33.337299    -0.096000
   49.520625    86.781986    32.620870     0.268100
   49.138733    88.152157    34.199335    -0.272200
   49.290612    87.768206    35.140651     0.130400
   50.371213    88.896301    33.755399     0.112300
   50.572240    89.649752    34.398741     0.081300
   51.168942    88.263054    33.740221     0.081300
   50.182086    89.417246    32.493718    -0.651400
   50.951938    89.892581    32.219800     0.447400
   47.959653    89.068047    34.270553     0.811300
   47.683633    89.607150    33.327082    -0.813200
   47.290000    89.260000    35.250000    -0.813200
   46.542602    86.519646    34.819096    -0.275785
   47.357053    86.350717    33.912987     0.275785
   49.401312    87.368812    33.273955    -0.283437
   48.319326    86.643406    33.400643     0.283437

   46.949827    86.435181    34.366041
   48.860319    87.006109    33.337299
   49.520625    86.781986    32.620870
   49.138733    88.152157    34.199335
   49.290612    87.768206    35.140651
   50.371213    88.896301    33.755399
   50.572240    89.649752    34.398741
   51.168942    88.263054    33.740221
   50.182086    89.417246    32.493718
   50.951938    89.892581    32.219800
   47.959653    89.068047    34.270553
   47.683633    89.607150    33.327082
   47.290000    89.260000    35.250000
   46.542602    86.519646    34.819096
   47.357053    86.350717    33.912987
   49.401312    87.368812    33.273955
   48.319326    86.643406    33.400643


