%NPROCSHARED=1
%MEM=1000MB
%CHK=testopt.2.chk
%OLDCHK=testopt.1.chk
#P BP86/STO-3G guess=read nosymm gfinput gfprint force charge guess=huckel punch=derivatives iop(3/33=1,6/7=3) prop(field,read) pop=esp

QM part of step 2

1 1
N     47.848780    85.625365    31.117099
H     47.698913    84.844520    30.445541
H     47.191511    86.391826    30.896739
H     48.833161    85.976650    31.052918
C     47.579740    85.177993    32.488937
H     48.239318    84.354642    32.687138
H     46.573729    84.794610    32.504458
H     47.706846    85.954908    33.181995

   46.948950    86.424500    34.357776    -0.286100
   48.859377    86.998900    33.332042    -0.096000
   49.522728    86.785925    32.621757     0.268100
   49.137952    88.148167    34.190014    -0.272200
   49.292454    87.765551    35.158264     0.130400
   50.359011    88.891983    33.747531     0.112300
   50.575638    89.667243    34.414501     0.081300
   51.185091    88.249953    33.740757     0.081300
   50.186609    89.410934    32.479994    -0.651400
   50.955935    89.898201    32.219583     0.447400
   47.969511    89.055639    34.303687     0.811300
   47.662512    89.636277    33.263581    -0.813200
   47.290000    89.260000    35.250000    -0.813200
   46.541178    86.503488    34.809698    -0.275543
   47.356722    86.345512    33.905854     0.275543
   49.401087    87.358512    33.268566    -0.283231
   48.317666    86.639287    33.395518     0.283231

   46.948950    86.424500    34.357776
   48.859377    86.998900    33.332042
   49.522728    86.785925    32.621757
   49.137952    88.148167    34.190014
   49.292454    87.765551    35.158264
   50.359011    88.891983    33.747531
   50.575638    89.667243    34.414501
   51.185091    88.249953    33.740757
   50.186609    89.410934    32.479994
   50.955935    89.898201    32.219583
   47.969511    89.055639    34.303687
   47.662512    89.636277    33.263581
   47.290000    89.260000    35.250000
   46.541178    86.503488    34.809698
   47.356722    86.345512    33.905854
   49.401087    87.358512    33.268566
   48.317666    86.639287    33.395518


