%NPROCSHARED=1
%MEM=1000MB
%CHK=testopt.35.chk
%OLDCHK=testopt.34.chk
#P BP86/STO-3G guess=read nosymm gfinput gfprint force charge guess=huckel punch=derivatives iop(3/33=1,6/7=3) prop(field,read) pop=esp

QM part of step 35

1 1
N     47.836988    85.642593    31.071029
H     47.700575    84.903772    30.321400
H     47.178187    86.476115    30.939614
H     48.828848    86.031856    31.033679
C     47.575017    85.031747    32.450432
H     48.295315    84.226055    32.687522
H     46.509001    84.726930    32.524776
H     47.715413    85.846721    33.115988

   46.917134    86.304965    34.231939    -0.286100
   48.855560    86.962286    33.289353    -0.096000
   49.572498    86.845292    32.601657     0.268100
   49.097264    88.145549    34.151012    -0.272200
   49.230635    87.815923    35.184515     0.130400
   50.391131    88.864167    33.731120     0.112300
   50.553556    89.723820    34.392167     0.081300
   51.239048    88.188352    33.832959     0.081300
   50.358873    89.235516    32.363837    -0.651400
   50.933707    89.995749    32.233717     0.447400
   47.892847    89.107915    34.167461     0.811300
   47.557430    89.603472    33.070351    -0.813200
   47.290000    89.260000    35.250000    -0.813200
   46.487196    86.370374    34.658411    -0.274592
   47.347071    86.239555    33.805467     0.274592
   49.383644    87.346003    33.243222    -0.283437
   48.327475    86.578570    33.335483     0.283437

   46.917134    86.304965    34.231939
   48.855560    86.962286    33.289353
   49.572498    86.845292    32.601657
   49.097264    88.145549    34.151012
   49.230635    87.815923    35.184515
   50.391131    88.864167    33.731120
   50.553556    89.723820    34.392167
   51.239048    88.188352    33.832959
   50.358873    89.235516    32.363837
   50.933707    89.995749    32.233717
   47.892847    89.107915    34.167461
   47.557430    89.603472    33.070351
   47.290000    89.260000    35.250000
   46.487196    86.370374    34.658411
   47.347071    86.239555    33.805467
   49.383644    87.346003    33.243222
   48.327475    86.578570    33.335483


