%NPROCSHARED=1
%MEM=1000MB
%CHK=testopt.chk
#P BP86/STO-3G nosymm gfinput gfprint force charge guess=huckel punch=derivatives iop(3/33=1,6/7=3) prop(field,read) pop=esp

QM part of step 0

1 1
N     47.900000    85.620000    31.120000
H     47.700000    84.870000    30.470000
H     47.200000    86.370000    30.900000
H     48.770000    85.950000    31.060000
C     47.570000    85.150000    32.470000
H     48.200000    84.400000    32.670000
H     46.630000    84.810000    32.500000
H     47.705453    85.948457    33.182908

   46.950000    86.440000    34.370000   -49.786100
   48.860000    87.010000    33.340000   -49.596000
   49.520000    86.780000    32.620000     0.268100
   49.140000    88.150000    34.210000    -0.272200
   49.290000    87.770000    35.130000     0.130400
   50.380000    88.900000    33.760000     0.112300
   50.570000    89.640000    34.390000     0.081300
   51.160000    88.270000    33.740000     0.081300
   50.180000    89.420000    32.500000    -0.651400
   50.950000    89.890000    32.220000     0.447400
   47.950000    89.090000    34.220000     0.811300
   47.700000    89.580000    33.380000    -0.813200
   47.290000    89.260000    35.250000    -0.813200
   48.341181    86.148024    32.824243    -0.403846
   45.558819    86.731976    35.915757     0.403846
   47.125901    85.843424    33.544939    -0.403846
   50.594099    88.176576    33.135061     0.403846

   46.950000    86.440000    34.370000
   48.860000    87.010000    33.340000
   49.520000    86.780000    32.620000
   49.140000    88.150000    34.210000
   49.290000    87.770000    35.130000
   50.380000    88.900000    33.760000
   50.570000    89.640000    34.390000
   51.160000    88.270000    33.740000
   50.180000    89.420000    32.500000
   50.950000    89.890000    32.220000
   47.950000    89.090000    34.220000
   47.700000    89.580000    33.380000
   47.290000    89.260000    35.250000
   48.341181    86.148024    32.824243
   45.558819    86.731976    35.915757
   47.125901    85.843424    33.544939
   50.594099    88.176576    33.135061


