%NPROCSHARED=1
%MEM=1000MB
%CHK=testopt.2.chk
%OLDCHK=testopt.1.chk
#P BP86/STO-3G guess=read nosymm gfinput gfprint force charge guess=huckel punch=derivatives iop(3/33=1,6/7=3) prop(field,read) pop=esp

QM part of step 2

1 1
N     47.866625    85.615665    31.121175
H     47.700357    84.864013    30.463985
H     47.200430    86.373176    30.900022
H     48.801581    85.962344    31.057568
C     47.577626    85.167681    32.473319
H     48.213135    84.384318    32.675442
H     46.609783    84.803884    32.500511
H     47.706655    85.951678    33.181695

   46.949938    86.436530    34.367085    -0.286100
   48.860438    87.007019    33.337963    -0.096000
   49.520360    86.781489    32.620758     0.268100
   49.138831    88.152661    34.200512    -0.272200
   49.290379    87.768542    35.138427     0.130400
   50.372754    88.896846    33.756392     0.112300
   50.571811    89.647544    34.396751     0.081300
   51.166903    88.264708    33.740154     0.081300
   50.181515    89.418043    32.495450    -0.651400
   50.951433    89.891871    32.219827     0.447400
   47.958409    89.069614    34.266369     0.811300
   47.686300    89.603472    33.335100    -0.813200
   47.290000    89.260000    35.250000    -0.813200
   46.542885    86.521664    34.820168    -0.275785
   47.356992    86.351396    33.914001     0.275785
   49.401225    87.370034    33.274648    -0.283437
   48.319651    86.644004    33.401277     0.283437

   46.949938    86.436530    34.367085
   48.860438    87.007019    33.337963
   49.520360    86.781489    32.620758
   49.138831    88.152661    34.200512
   49.290379    87.768542    35.138427
   50.372754    88.896846    33.756392
   50.571811    89.647544    34.396751
   51.166903    88.264708    33.740154
   50.181515    89.418043    32.495450
   50.951433    89.891871    32.219827
   47.958409    89.069614    34.266369
   47.686300    89.603472    33.335100
   47.290000    89.260000    35.250000
   46.542885    86.521664    34.820168
   47.356992    86.351396    33.914001
   49.401225    87.370034    33.274648
   48.319651    86.644004    33.401277


